<?xml version="1.0" encoding="UTF-8"?>

<!-- generated on 2025-11-09 18:35:50 by Eclipse SUMO netedit Version 1.24.0
<neteditConfiguration xmlns:xsi="http://www.w3.org/2001/XMLSchema-instance" xsi:noNamespaceSchemaLocation="http://sumo.dlr.de/xsd/neteditConfiguration.xsd">

    <input>
        <sumo-net-file value="C:\Users\Patrick\Documents\Sumo\New folder\o.net.xml"/>
    </input>

    <output>
        <output-file value="C:\Users\Patrick\Documents\Sumo\New folder\o.net.xml"/>
    </output>

    <processing>
        <offset.disable-normalization value="true"/>
    </processing>

    <junctions>
        <no-turnarounds value="true"/>
    </junctions>

    <netedit>
        <new-network value="false"/>
    </netedit>

</neteditConfiguration>
-->

<net version="1.20" junctionCornerDetail="5" limitTurnSpeed="5.50" xmlns:xsi="http://www.w3.org/2001/XMLSchema-instance" xsi:noNamespaceSchemaLocation="http://sumo.dlr.de/xsd/net_file.xsd">

    <location netOffset="0.00,0.00" convBoundary="-69.73,15.02,64.43,37.75" origBoundary="10000000000.00,10000000000.00,-10000000000.00,-10000000000.00" projParameter="!"/>

    <edge id=":J1_0" function="internal">
        <lane id=":J1_0_0" index="0" speed="13.89" length="0.63" shape="-4.88,36.11 -4.69,36.12 -4.56,36.11 -4.43,36.09 -4.26,36.03"/>
    </edge>

    <edge id="E0" from="J0" to="J1" priority="-1">
        <lane id="E0_0" index="0" speed="13.89" length="64.91" shape="-69.61,31.33 -4.88,36.11"/>
    </edge>
    <edge id="E1" from="J1" to="J2" priority="-1">
        <lane id="E1_0" index="0" speed="13.89" length="71.81" shape="-4.26,36.03 63.93,13.50"/>
    </edge>

    <junction id="J0" type="dead_end" x="-69.73" y="32.92" incLanes="" intLanes="" shape="-69.73,32.92 -69.49,29.73"/>
    <junction id="J1" type="priority" x="-4.36" y="37.75" incLanes="E0_0" intLanes=":J1_0_0" shape="-3.75,37.55 -4.76,34.51 -4.99,37.70 -4.53,37.73 -4.36,37.72 -4.20,37.69 -4.01,37.63">
        <request index="0" response="0" foes="0" cont="0"/>
    </junction>
    <junction id="J2" type="dead_end" x="64.43" y="15.02" incLanes="E1_0" intLanes="" shape="63.42,11.98 64.43,15.02"/>

    <connection from="E0" to="E1" fromLane="0" toLane="0" via=":J1_0_0" dir="s" state="M"/>

    <connection from=":J1_0" to="E1" fromLane="0" toLane="0" dir="s" state="M"/>

</net>
