<?xml version="1.0" encoding="UTF-8"?>
<routes xmlns:xsi="http://www.w3.org/2001/XMLSchema-instance"
        xsi:noNamespaceSchemaLocation="http://sumo.dlr.de/xsd/routes_file.xsd">

    <!-- Fahrzeugtypen -->
    <vType id="Car" accel="2.6" decel="4.5" sigma="0.5" length="5.0" maxSpeed="70"/>

    <!-- Routen -->
    <route id="route0" edges="-E1 -E1.67"/>
    <route id="route1" edges="E1 E1.54"/>
    <route id="route2" edges="E2 E1.54"/>

    <!-- Fahrzeuge -->
    <vehicle id="veh0" type="Car" route="route0" depart="0"/>
    <vehicle id="veh1" type="Car" route="route1" depart="0"/>
    <vehicle id="veh2" type="Car" route="route2" depart="0"/>
</routes>
